<?xml version="1.0" encoding="UTF-8"?>

<!-- generated on 2025-02-10 22:47:02 by Eclipse SUMO netedit Version 1.20.0
<configuration xmlns:xsi="http://www.w3.org/2001/XMLSchema-instance" xsi:noNamespaceSchemaLocation="http://sumo.dlr.de/xsd/neteditConfiguration.xsd">

    <input>
        <additional-files value="C:\Workspaces\sumo\sumo\add\E2.add.xml"/>
        <sumo-net-file value="C:\Workspaces\sumo\sumo\map.net.xml"/>
    </input>

    <output>
        <output-file value="C:\Workspaces\sumo\sumo\map.net.xml"/>
    </output>

    <processing>
        <geometry.min-radius.fix.railways value="false"/>
        <geometry.max-grade.fix value="false"/>
        <offset.disable-normalization value="true"/>
        <lefthand value="0"/>
    </processing>

    <junctions>
        <no-turnarounds value="true"/>
        <junctions.corner-detail value="5"/>
        <junctions.limit-turn-speed value="5.50"/>
        <rectangular-lane-cut value="0"/>
    </junctions>

    <pedestrian>
        <walkingareas value="0"/>
    </pedestrian>

</configuration>
-->

<net version="1.20" junctionCornerDetail="5" limitTurnSpeed="5.50" xmlns:xsi="http://www.w3.org/2001/XMLSchema-instance" xsi:noNamespaceSchemaLocation="http://sumo.dlr.de/xsd/net_file.xsd">

    <location netOffset="-755635.96,-2519785.70" convBoundary="2286.37,102.05,2812.20,856.61" origBoundary="113.489652,22.765756,113.524276,22.777281" projParameter="+proj=utm +zone=49 +ellps=WGS84 +datum=WGS84 +units=m +no_defs"/>

    <type id="highway.residential" priority="3" numLanes="1" speed="13.89" disallow="tram rail_urban rail rail_electric rail_fast ship container cable_car subway aircraft wheelchair scooter drone" oneway="0"/>
    <type id="highway.tertiary" priority="10" numLanes="1" speed="22.22" disallow="tram rail_urban rail rail_electric rail_fast ship container cable_car subway aircraft wheelchair scooter drone" oneway="0"/>
    <type id="highway.unclassified" priority="4" numLanes="1" speed="13.89" disallow="tram rail_urban rail rail_electric rail_fast ship container cable_car subway aircraft wheelchair scooter drone" oneway="0"/>

    <edge id=":0_0" function="internal">
        <lane id=":0_0_0" index="0" disallow="tram rail_urban rail rail_electric rail_fast ship container cable_car subway aircraft wheelchair scooter drone" speed="22.22" length="15.38" shape="2367.51,817.09 2354.00,824.49"/>
        <lane id=":0_0_1" index="1" disallow="tram rail_urban rail rail_electric rail_fast ship container cable_car subway aircraft wheelchair scooter drone" speed="22.22" length="15.38" shape="2365.96,814.29 2352.49,821.67"/>
    </edge>
    <edge id=":0_2" function="internal">
        <lane id=":0_2_0" index="0" disallow="tram rail_urban rail rail_electric rail_fast ship container cable_car subway aircraft wheelchair scooter drone" speed="8.15" length="4.72" shape="2365.96,814.29 2361.53,815.91"/>
    </edge>
    <edge id=":0_8" function="internal">
        <lane id=":0_8_0" index="0" disallow="tram rail_urban rail rail_electric rail_fast ship container cable_car subway aircraft wheelchair scooter drone" speed="8.15" length="15.57" shape="2361.53,815.91 2360.70,816.22 2356.90,815.36 2354.59,811.71 2353.74,805.29"/>
    </edge>
    <edge id=":0_3" function="internal">
        <lane id=":0_3_0" index="0" disallow="tram rail_urban rail rail_electric rail_fast ship container cable_car subway aircraft wheelchair scooter drone" speed="5.70" length="9.21" shape="2356.94,805.25 2357.34,807.96 2358.47,809.44 2360.31,809.68 2362.87,808.69"/>
    </edge>
    <edge id=":0_4" function="internal">
        <lane id=":0_4_0" index="0" disallow="tram rail_urban rail rail_electric rail_fast ship container cable_car subway aircraft wheelchair scooter drone" speed="11.00" length="17.63" shape="2356.94,805.25 2356.73,811.50 2355.92,816.32 2354.51,819.71 2352.49,821.67"/>
    </edge>
    <edge id=":0_5" function="internal">
        <lane id=":0_5_0" index="0" disallow="tram rail_urban rail rail_electric rail_fast ship container cable_car subway aircraft wheelchair scooter drone" speed="9.19" length="12.12" shape="2349.47,816.03 2351.38,814.47 2352.73,812.17 2353.52,809.11 2353.74,805.29"/>
    </edge>
    <edge id=":0_6" function="internal">
        <lane id=":0_6_0" index="0" disallow="tram rail_urban rail rail_electric rail_fast ship container cable_car subway aircraft wheelchair scooter drone" speed="22.22" length="15.30" shape="2349.47,816.03 2362.87,808.69"/>
        <lane id=":0_6_1" index="1" disallow="tram rail_urban rail rail_electric rail_fast ship container cable_car subway aircraft wheelchair scooter drone" speed="22.22" length="15.30" shape="2350.98,818.85 2364.42,811.49"/>
    </edge>
    <edge id=":1_0" function="internal">
        <lane id=":1_0_0" index="0" disallow="tram rail_urban rail rail_electric rail_fast ship container cable_car subway aircraft wheelchair scooter drone" speed="5.77" length="9.16" shape="2352.33,703.84 2351.92,701.17 2350.79,699.66 2348.94,699.32 2346.37,700.14"/>
    </edge>
    <edge id=":1_1" function="internal">
        <lane id=":1_1_0" index="0" disallow="tram rail_urban rail rail_electric rail_fast ship container cable_car subway aircraft wheelchair scooter drone" speed="13.89" length="18.34" shape="2352.33,703.84 2352.36,685.50"/>
    </edge>
    <edge id=":1_2" function="internal">
        <lane id=":1_2_0" index="0" disallow="tram rail_urban rail rail_electric rail_fast ship container cable_car subway aircraft wheelchair scooter drone" speed="10.90" length="5.11" shape="2352.33,703.84 2353.06,699.77 2353.49,698.88"/>
    </edge>
    <edge id=":1_12" function="internal">
        <lane id=":1_12_0" index="0" disallow="tram rail_urban rail rail_electric rail_fast ship container cable_car subway aircraft wheelchair scooter drone" speed="10.90" length="12.71" shape="2353.49,698.88 2355.10,695.52 2358.02,691.77 2361.39,689.22"/>
    </edge>
    <edge id=":1_3" function="internal">
        <lane id=":1_3_0" index="0" disallow="tram rail_urban rail rail_electric rail_fast ship container cable_car subway aircraft wheelchair scooter drone" speed="9.91" length="14.61" shape="2362.82,692.08 2359.59,694.20 2357.29,696.87 2355.94,700.06 2355.53,703.79"/>
    </edge>
    <edge id=":1_4" function="internal">
        <lane id=":1_4_0" index="0" disallow="tram rail_urban rail rail_electric rail_fast ship container cable_car subway aircraft wheelchair scooter drone" speed="13.89" length="18.32" shape="2362.82,692.08 2346.37,700.14"/>
    </edge>
    <edge id=":1_5" function="internal">
        <lane id=":1_5_0" index="0" disallow="tram rail_urban rail rail_electric rail_fast ship container cable_car subway aircraft wheelchair scooter drone" speed="7.42" length="4.92" shape="2362.82,692.08 2358.17,693.68"/>
    </edge>
    <edge id=":1_13" function="internal">
        <lane id=":1_13_0" index="0" disallow="tram rail_urban rail rail_electric rail_fast ship container cable_car subway aircraft wheelchair scooter drone" speed="7.42" length="11.61" shape="2358.17,693.68 2354.87,693.11 2352.94,690.39 2352.36,685.50"/>
    </edge>
    <edge id=":1_6" function="internal">
        <lane id=":1_6_0" index="0" disallow="tram rail_urban rail rail_electric rail_fast ship container cable_car subway aircraft wheelchair scooter drone" speed="5.71" length="9.20" shape="2355.56,685.56 2355.88,688.28 2356.96,689.79 2358.79,690.11 2361.39,689.22"/>
    </edge>
    <edge id=":1_7" function="internal">
        <lane id=":1_7_0" index="0" disallow="tram rail_urban rail rail_electric rail_fast ship container cable_car subway aircraft wheelchair scooter drone" speed="13.89" length="18.23" shape="2355.56,685.56 2355.53,703.79"/>
    </edge>
    <edge id=":1_8" function="internal">
        <lane id=":1_8_0" index="0" disallow="tram rail_urban rail rail_electric rail_fast ship container cable_car subway aircraft wheelchair scooter drone" speed="10.97" length="4.92" shape="2355.56,685.56 2354.72,689.70 2354.42,690.32"/>
    </edge>
    <edge id=":1_14" function="internal">
        <lane id=":1_14_0" index="0" disallow="tram rail_urban rail rail_electric rail_fast ship container cable_car subway aircraft wheelchair scooter drone" speed="10.97" length="12.93" shape="2354.42,690.32 2352.62,693.97 2349.70,697.67 2346.37,700.14"/>
    </edge>
    <edge id=":1_9" function="internal">
        <lane id=":1_9_0" index="0" disallow="tram rail_urban rail rail_electric rail_fast ship container cable_car subway aircraft wheelchair scooter drone" speed="9.98" length="14.66" shape="2344.99,697.25 2348.16,695.22 2350.45,692.59 2351.85,689.35 2352.36,685.50"/>
    </edge>
    <edge id=":1_10" function="internal">
        <lane id=":1_10_0" index="0" disallow="tram rail_urban rail rail_electric rail_fast ship container cable_car subway aircraft wheelchair scooter drone" speed="13.89" length="18.25" shape="2344.99,697.25 2361.39,689.22"/>
    </edge>
    <edge id=":1_11" function="internal">
        <lane id=":1_11_0" index="0" disallow="tram rail_urban rail rail_electric rail_fast ship container cable_car subway aircraft wheelchair scooter drone" speed="7.46" length="4.61" shape="2344.99,697.25 2349.39,695.85"/>
    </edge>
    <edge id=":1_15" function="internal">
        <lane id=":1_15_0" index="0" disallow="tram rail_urban rail rail_electric rail_fast ship container cable_car subway aircraft wheelchair scooter drone" speed="7.46" length="11.58" shape="2349.39,695.85 2349.54,695.80 2352.81,696.41 2354.81,699.07 2355.53,703.79"/>
    </edge>
    <edge id=":10_0" function="internal">
        <lane id=":10_0_0" index="0" disallow="tram rail_urban rail rail_electric rail_fast ship container cable_car subway aircraft wheelchair scooter drone" speed="13.89" length="14.42" shape="2511.52,423.94 2511.25,438.35"/>
    </edge>
    <edge id=":10_1" function="internal">
        <lane id=":10_1_0" index="0" disallow="tram rail_urban rail rail_electric rail_fast ship container cable_car subway aircraft wheelchair scooter drone" speed="7.99" length="4.09" shape="2511.52,423.94 2510.90,427.79 2510.80,427.95"/>
    </edge>
    <edge id=":10_6" function="internal">
        <lane id=":10_6_0" index="0" disallow="tram rail_urban rail rail_electric rail_fast ship container cable_car subway aircraft wheelchair scooter drone" speed="7.99" length="10.13" shape="2510.80,427.95 2509.20,430.51 2506.42,432.10 2502.54,432.57"/>
    </edge>
    <edge id=":10_2" function="internal">
        <lane id=":10_2_0" index="0" disallow="tram rail_urban rail rail_electric rail_fast ship container cable_car subway aircraft wheelchair scooter drone" speed="6.49" length="9.03" shape="2502.62,429.37 2505.08,429.07 2506.85,428.06 2507.93,426.33 2508.32,423.88"/>
    </edge>
    <edge id=":10_3" function="internal">
        <lane id=":10_3_0" index="0" disallow="tram rail_urban rail rail_electric rail_fast ship container cable_car subway aircraft wheelchair scooter drone" speed="8.01" length="14.21" shape="2502.62,429.37 2506.46,430.00 2509.18,431.71 2510.78,434.50 2511.25,438.35"/>
    </edge>
    <edge id=":10_4" function="internal">
        <lane id=":10_4_0" index="0" disallow="tram rail_urban rail rail_electric rail_fast ship container cable_car subway aircraft wheelchair scooter drone" speed="6.52" length="9.05" shape="2508.06,438.29 2507.75,435.83 2506.73,434.06 2505.00,432.97 2502.54,432.57"/>
    </edge>
    <edge id=":10_5" function="internal">
        <lane id=":10_5_0" index="0" disallow="tram rail_urban rail rail_electric rail_fast ship container cable_car subway aircraft wheelchair scooter drone" speed="13.89" length="14.41" shape="2508.06,438.29 2508.32,423.88"/>
    </edge>
    <edge id=":11_0" function="internal">
        <lane id=":11_0_0" index="0" disallow="tram rail_urban rail rail_electric rail_fast ship container cable_car subway aircraft wheelchair scooter drone" speed="6.46" length="9.03" shape="2518.50,341.41 2516.03,341.67 2514.26,342.66 2513.17,344.38 2512.78,346.83"/>
    </edge>
    <edge id=":11_1" function="internal">
        <lane id=":11_1_0" index="0" disallow="tram rail_urban rail rail_electric rail_fast ship container cable_car subway aircraft wheelchair scooter drone" speed="13.89" length="14.45" shape="2518.50,341.41 2504.07,340.92"/>
    </edge>
    <edge id=":11_2" function="internal">
        <lane id=":11_2_0" index="0" disallow="tram rail_urban rail rail_electric rail_fast ship container cable_car subway aircraft wheelchair scooter drone" speed="8.02" length="4.08" shape="2518.50,341.41 2514.65,340.71 2514.51,340.63"/>
    </edge>
    <edge id=":11_12" function="internal">
        <lane id=":11_12_0" index="0" disallow="tram rail_urban rail rail_electric rail_fast ship container cable_car subway aircraft wheelchair scooter drone" speed="8.02" length="10.17" shape="2514.51,340.63 2511.93,338.97 2510.37,336.16 2509.94,332.30"/>
    </edge>
    <edge id=":11_3" function="internal">
        <lane id=":11_3_0" index="0" disallow="tram rail_urban rail rail_electric rail_fast ship container cable_car subway aircraft wheelchair scooter drone" speed="6.53" length="9.09" shape="2513.14,332.41 2513.41,334.87 2514.42,336.65 2516.15,337.77 2518.62,338.21"/>
    </edge>
    <edge id=":11_4" function="internal">
        <lane id=":11_4_0" index="0" disallow="tram rail_urban rail rail_electric rail_fast ship container cable_car subway aircraft wheelchair scooter drone" speed="13.89" length="14.43" shape="2513.14,332.41 2512.78,346.83"/>
    </edge>
    <edge id=":11_5" function="internal">
        <lane id=":11_5_0" index="0" disallow="tram rail_urban rail rail_electric rail_fast ship container cable_car subway aircraft wheelchair scooter drone" speed="8.01" length="4.00" shape="2513.14,332.41 2512.46,336.23 2512.40,336.33"/>
    </edge>
    <edge id=":11_13" function="internal">
        <lane id=":11_13_0" index="0" disallow="tram rail_urban rail rail_electric rail_fast ship container cable_car subway aircraft wheelchair scooter drone" speed="8.01" length="10.18" shape="2512.40,336.33 2510.72,338.93 2507.92,340.49 2504.07,340.92"/>
    </edge>
    <edge id=":11_6" function="internal">
        <lane id=":11_6_0" index="0" disallow="tram rail_urban rail rail_electric rail_fast ship container cable_car subway aircraft wheelchair scooter drone" speed="6.51" length="9.03" shape="2504.16,337.72 2506.62,337.45 2508.40,336.45 2509.51,334.74 2509.94,332.30"/>
    </edge>
    <edge id=":11_7" function="internal">
        <lane id=":11_7_0" index="0" disallow="tram rail_urban rail rail_electric rail_fast ship container cable_car subway aircraft wheelchair scooter drone" speed="13.89" length="14.47" shape="2504.16,337.72 2518.62,338.21"/>
    </edge>
    <edge id=":11_8" function="internal">
        <lane id=":11_8_0" index="0" disallow="tram rail_urban rail rail_electric rail_fast ship container cable_car subway aircraft wheelchair scooter drone" speed="8.06" length="4.08" shape="2504.16,337.72 2507.99,338.39 2508.15,338.50"/>
    </edge>
    <edge id=":11_14" function="internal">
        <lane id=":11_14_0" index="0" disallow="tram rail_urban rail rail_electric rail_fast ship container cable_car subway aircraft wheelchair scooter drone" speed="8.06" length="10.18" shape="2508.15,338.50 2510.70,340.13 2512.30,342.95 2512.78,346.83"/>
    </edge>
    <edge id=":11_9" function="internal">
        <lane id=":11_9_0" index="0" disallow="tram rail_urban rail rail_electric rail_fast ship container cable_car subway aircraft wheelchair scooter drone" speed="6.58" length="9.15" shape="2509.58,346.78 2509.27,344.28 2508.25,342.47 2506.51,341.35 2504.07,340.92"/>
    </edge>
    <edge id=":11_10" function="internal">
        <lane id=":11_10_0" index="0" disallow="tram rail_urban rail rail_electric rail_fast ship container cable_car subway aircraft wheelchair scooter drone" speed="13.89" length="14.48" shape="2509.58,346.78 2509.94,332.30"/>
    </edge>
    <edge id=":11_11" function="internal">
        <lane id=":11_11_0" index="0" disallow="tram rail_urban rail rail_electric rail_fast ship container cable_car subway aircraft wheelchair scooter drone" speed="7.97" length="4.15" shape="2509.58,346.78 2510.20,342.91 2510.32,342.72"/>
    </edge>
    <edge id=":11_15" function="internal">
        <lane id=":11_15_0" index="0" disallow="tram rail_urban rail rail_electric rail_fast ship container cable_car subway aircraft wheelchair scooter drone" speed="7.97" length="10.12" shape="2510.32,342.72 2511.91,340.19 2514.72,338.62 2518.62,338.21"/>
    </edge>
    <edge id=":12_0" function="internal">
        <lane id=":12_0_0" index="0" disallow="tram rail_urban rail rail_electric rail_fast ship container cable_car subway aircraft wheelchair scooter drone" speed="6.60" length="9.21" shape="2522.77,214.95 2520.27,215.26 2518.46,216.30 2517.33,218.06 2516.90,220.54"/>
    </edge>
    <edge id=":12_1" function="internal">
        <lane id=":12_1_0" index="0" disallow="tram rail_urban rail rail_electric rail_fast ship container cable_car subway aircraft wheelchair scooter drone" speed="13.89" length="14.51" shape="2522.77,214.95 2508.26,214.72"/>
    </edge>
    <edge id=":12_2" function="internal">
        <lane id=":12_2_0" index="0" disallow="tram rail_urban rail rail_electric rail_fast ship container cable_car subway aircraft wheelchair scooter drone" speed="7.97" length="4.08" shape="2522.77,214.95 2518.90,214.33 2518.77,214.25"/>
    </edge>
    <edge id=":12_12" function="internal">
        <lane id=":12_12_0" index="0" disallow="tram rail_urban rail rail_electric rail_fast ship container cable_car subway aircraft wheelchair scooter drone" speed="7.97" length="10.18" shape="2518.77,214.25 2516.18,212.62 2514.61,209.82 2514.19,205.92"/>
    </edge>
    <edge id=":12_3" function="internal">
        <lane id=":12_3_0" index="0" disallow="tram rail_urban rail rail_electric rail_fast ship container cable_car subway aircraft wheelchair scooter drone" speed="6.47" length="9.03" shape="2517.39,206.03 2517.66,208.50 2518.65,210.27 2520.37,211.36 2522.82,211.75"/>
    </edge>
    <edge id=":12_4" function="internal">
        <lane id=":12_4_0" index="0" disallow="tram rail_urban rail rail_electric rail_fast ship container cable_car subway aircraft wheelchair scooter drone" speed="13.89" length="14.51" shape="2517.39,206.03 2516.90,220.54"/>
    </edge>
    <edge id=":12_5" function="internal">
        <lane id=":12_5_0" index="0" disallow="tram rail_urban rail rail_electric rail_fast ship container cable_car subway aircraft wheelchair scooter drone" speed="8.09" length="4.09" shape="2517.39,206.03 2516.70,209.88 2516.61,210.03"/>
    </edge>
    <edge id=":12_13" function="internal">
        <lane id=":12_13_0" index="0" disallow="tram rail_urban rail rail_electric rail_fast ship container cable_car subway aircraft wheelchair scooter drone" speed="8.09" length="10.22" shape="2516.61,210.03 2514.95,212.61 2512.14,214.23 2508.26,214.72"/>
    </edge>
    <edge id=":12_6" function="internal">
        <lane id=":12_6_0" index="0" disallow="tram rail_urban rail rail_electric rail_fast ship container cable_car subway aircraft wheelchair scooter drone" speed="6.61" length="9.22" shape="2508.31,211.52 2510.81,211.20 2512.62,210.16 2513.75,208.40 2514.19,205.92"/>
    </edge>
    <edge id=":12_7" function="internal">
        <lane id=":12_7_0" index="0" disallow="tram rail_urban rail rail_electric rail_fast ship container cable_car subway aircraft wheelchair scooter drone" speed="13.89" length="14.52" shape="2508.31,211.52 2522.82,211.75"/>
    </edge>
    <edge id=":12_8" function="internal">
        <lane id=":12_8_0" index="0" disallow="tram rail_urban rail rail_electric rail_fast ship container cable_car subway aircraft wheelchair scooter drone" speed="7.97" length="4.09" shape="2508.31,211.52 2512.18,212.13 2512.32,212.22"/>
    </edge>
    <edge id=":12_14" function="internal">
        <lane id=":12_14_0" index="0" disallow="tram rail_urban rail rail_electric rail_fast ship container cable_car subway aircraft wheelchair scooter drone" speed="7.97" length="10.18" shape="2512.32,212.22 2514.90,213.84 2516.47,216.64 2516.90,220.54"/>
    </edge>
    <edge id=":12_9" function="internal">
        <lane id=":12_9_0" index="0" disallow="tram rail_urban rail rail_electric rail_fast ship container cable_car subway aircraft wheelchair scooter drone" speed="6.47" length="9.03" shape="2513.70,220.43 2513.43,217.96 2512.43,216.19 2510.71,215.11 2508.26,214.72"/>
    </edge>
    <edge id=":12_10" function="internal">
        <lane id=":12_10_0" index="0" disallow="tram rail_urban rail rail_electric rail_fast ship container cable_car subway aircraft wheelchair scooter drone" speed="13.89" length="14.52" shape="2513.70,220.43 2514.19,205.92"/>
    </edge>
    <edge id=":12_11" function="internal">
        <lane id=":12_11_0" index="0" disallow="tram rail_urban rail rail_electric rail_fast ship container cable_car subway aircraft wheelchair scooter drone" speed="8.08" length="4.09" shape="2513.70,220.43 2514.38,216.58 2514.48,216.43"/>
    </edge>
    <edge id=":12_15" function="internal">
        <lane id=":12_15_0" index="0" disallow="tram rail_urban rail rail_electric rail_fast ship container cable_car subway aircraft wheelchair scooter drone" speed="8.08" length="10.22" shape="2514.48,216.43 2516.13,213.85 2518.94,212.24 2522.82,211.75"/>
    </edge>
    <edge id=":13_0" function="internal">
        <lane id=":13_0_0" index="0" disallow="tram rail_urban rail rail_electric rail_fast ship container cable_car subway aircraft wheelchair scooter drone" speed="6.63" length="9.15" shape="2525.91,119.15 2523.47,119.50 2521.70,120.57 2520.60,122.35 2520.17,124.84"/>
    </edge>
    <edge id=":13_1" function="internal">
        <lane id=":13_1_0" index="0" disallow="tram rail_urban rail rail_electric rail_fast ship container cable_car subway aircraft wheelchair scooter drone" speed="22.22" length="14.30" shape="2525.91,119.15 2511.55,118.99"/>
        <lane id=":13_1_1" index="1" disallow="tram rail_urban rail rail_electric rail_fast ship container cable_car subway aircraft wheelchair scooter drone" speed="22.22" length="14.30" shape="2525.91,115.95 2511.61,115.80"/>
        <lane id=":13_1_2" index="2" disallow="tram rail_urban rail rail_electric rail_fast ship container cable_car subway aircraft wheelchair scooter drone" speed="22.22" length="14.30" shape="2525.91,112.75 2511.68,112.60"/>
    </edge>
    <edge id=":13_4" function="internal">
        <lane id=":13_4_0" index="0" disallow="tram rail_urban rail rail_electric rail_fast ship container cable_car subway aircraft wheelchair scooter drone" speed="22.22" length="14.10" shape="2511.88,103.00 2525.90,103.15"/>
        <lane id=":13_4_1" index="1" disallow="tram rail_urban rail rail_electric rail_fast ship container cable_car subway aircraft wheelchair scooter drone" speed="22.22" length="14.10" shape="2511.81,106.20 2525.91,106.35"/>
        <lane id=":13_4_2" index="2" disallow="tram rail_urban rail rail_electric rail_fast ship container cable_car subway aircraft wheelchair scooter drone" speed="22.22" length="14.10" shape="2511.75,109.40 2525.91,109.55"/>
    </edge>
    <edge id=":13_7" function="internal">
        <lane id=":13_7_0" index="0" disallow="tram rail_urban rail rail_electric rail_fast ship container cable_car subway aircraft wheelchair scooter drone" speed="9.30" length="2.94" shape="2511.75,109.40 2514.59,110.15"/>
    </edge>
    <edge id=":13_10" function="internal">
        <lane id=":13_10_0" index="0" disallow="tram rail_urban rail rail_electric rail_fast ship container cable_car subway aircraft wheelchair scooter drone" speed="9.30" length="16.78" shape="2514.59,110.15 2515.63,110.43 2518.33,113.35 2519.84,118.15 2520.17,124.84"/>
    </edge>
    <edge id=":13_8" function="internal">
        <lane id=":13_8_0" index="0" disallow="tram rail_urban rail rail_electric rail_fast ship container cable_car subway aircraft wheelchair scooter drone" speed="6.48" length="9.03" shape="2516.97,124.73 2516.71,122.26 2515.71,120.49 2513.99,119.40 2511.55,118.99"/>
    </edge>
    <edge id=":13_9" function="internal">
        <lane id=":13_9_0" index="0" disallow="tram rail_urban rail rail_electric rail_fast ship container cable_car subway aircraft wheelchair scooter drone" speed="9.41" length="19.51" shape="2516.97,124.73 2517.73,118.09 2519.47,113.34 2522.19,110.50 2525.91,109.55"/>
    </edge>
    <edge id=":14_0" function="internal">
        <lane id=":14_0_0" index="0" disallow="tram rail_urban rail rail_electric rail_fast ship container cable_car subway aircraft wheelchair scooter drone" speed="22.22" length="29.49" shape="2703.82,639.25 2677.60,652.76"/>
        <lane id=":14_0_1" index="1" disallow="tram rail_urban rail rail_electric rail_fast ship container cable_car subway aircraft wheelchair scooter drone" speed="22.22" length="29.49" shape="2702.35,636.40 2676.14,649.91"/>
    </edge>
    <edge id=":14_2" function="internal">
        <lane id=":14_2_0" index="0" disallow="tram rail_urban rail rail_electric rail_fast ship container cable_car subway aircraft wheelchair scooter drone" speed="9.24" length="4.71" shape="2702.35,636.40 2697.89,637.90"/>
    </edge>
    <edge id=":14_10" function="internal">
        <lane id=":14_10_0" index="0" disallow="tram rail_urban rail rail_electric rail_fast ship container cable_car subway aircraft wheelchair scooter drone" speed="9.24" length="21.39" shape="2697.89,637.90 2695.19,638.81 2689.35,638.11 2685.39,634.29 2683.87,627.29"/>
    </edge>
    <edge id=":14_3" function="internal">
        <lane id=":14_3_0" index="0" disallow="tram rail_urban rail rail_electric rail_fast ship container cable_car subway aircraft wheelchair scooter drone" speed="5.74" length="9.18" shape="2693.46,627.16 2693.87,629.85 2695.00,631.34 2696.84,631.63 2699.41,630.72"/>
    </edge>
    <edge id=":14_4" function="internal">
        <lane id=":14_4_0" index="0" disallow="tram rail_urban rail rail_electric rail_fast ship container cable_car subway aircraft wheelchair scooter drone" speed="14.11" length="30.11" shape="2690.26,627.20 2689.57,635.90 2687.23,643.06 2683.24,648.68 2677.60,652.76"/>
        <lane id=":14_4_1" index="1" disallow="tram rail_urban rail rail_electric rail_fast ship container cable_car subway aircraft wheelchair scooter drone" speed="13.27" length="26.54" shape="2687.06,627.25 2686.47,635.02 2684.45,641.39 2681.01,646.35 2676.14,649.91"/>
    </edge>
    <edge id=":14_6" function="internal">
        <lane id=":14_6_0" index="0" disallow="tram rail_urban rail rail_electric rail_fast ship container cable_car subway aircraft wheelchair scooter drone" speed="10.98" length="17.95" shape="2673.23,644.21 2675.16,642.31 2676.51,638.87 2677.28,633.89 2677.47,627.38"/>
        <lane id=":14_6_1" index="1" disallow="tram rail_urban rail rail_electric rail_fast ship container cable_car subway aircraft wheelchair scooter drone" speed="11.40" length="19.42" shape="2673.23,644.21 2676.55,641.69 2678.90,638.04 2680.27,633.26 2680.67,627.34"/>
    </edge>
    <edge id=":14_8" function="internal">
        <lane id=":14_8_0" index="0" disallow="tram rail_urban rail rail_electric rail_fast ship container cable_car subway aircraft wheelchair scooter drone" speed="22.22" length="29.46" shape="2673.23,644.21 2699.41,630.72"/>
        <lane id=":14_8_1" index="1" disallow="tram rail_urban rail rail_electric rail_fast ship container cable_car subway aircraft wheelchair scooter drone" speed="22.22" length="29.46" shape="2674.68,647.06 2700.88,633.56"/>
    </edge>
    <edge id=":15_0" function="internal">
        <lane id=":15_0_0" index="0" disallow="tram rail_urban rail rail_electric rail_fast ship container cable_car subway aircraft wheelchair scooter drone" speed="6.61" length="9.14" shape="2676.29,543.42 2675.90,541.00 2674.80,539.26 2673.00,538.20 2670.49,537.81"/>
    </edge>
    <edge id=":15_1" function="internal">
        <lane id=":15_1_0" index="0" disallow="tram rail_urban rail rail_electric rail_fast ship container cable_car subway aircraft wheelchair scooter drone" speed="22.22" length="26.95" shape="2676.29,543.42 2676.43,516.35"/>
        <lane id=":15_1_1" index="1" disallow="tram rail_urban rail rail_electric rail_fast ship container cable_car subway aircraft wheelchair scooter drone" speed="22.22" length="26.95" shape="2679.49,543.38 2679.63,516.43"/>
        <lane id=":15_1_2" index="2" disallow="tram rail_urban rail rail_electric rail_fast ship container cable_car subway aircraft wheelchair scooter drone" speed="22.22" length="26.95" shape="2682.69,543.33 2682.83,516.51"/>
    </edge>
    <edge id=":15_4" function="internal">
        <lane id=":15_4_0" index="0" disallow="tram rail_urban rail rail_electric rail_fast ship container cable_car subway aircraft wheelchair scooter drone" speed="22.22" length="26.58" shape="2692.37,516.74 2692.29,543.20"/>
        <lane id=":15_4_1" index="1" disallow="tram rail_urban rail rail_electric rail_fast ship container cable_car subway aircraft wheelchair scooter drone" speed="22.22" length="26.58" shape="2689.18,516.66 2689.09,543.24"/>
        <lane id=":15_4_2" index="2" disallow="tram rail_urban rail rail_electric rail_fast ship container cable_car subway aircraft wheelchair scooter drone" speed="22.22" length="26.58" shape="2685.98,516.59 2685.89,543.29"/>
    </edge>
    <edge id=":15_7" function="internal">
        <lane id=":15_7_0" index="0" disallow="tram rail_urban rail rail_electric rail_fast ship container cable_car subway aircraft wheelchair scooter drone" speed="10.36" length="4.12" shape="2685.98,516.59 2685.30,520.65"/>
    </edge>