<additional xmlns:xsi="http://www.w3.org/2001/XMLSchema-instance" xsi:noNamespaceSchemaLocation="http://sumo.dlr.de/xsd/additional_file.xsd">
    <laneAreaDetector file="e2output.xml" freq="60" friendlyPos="x" id="e2det_0_e_0" lane="0_e_0" length="78.07000000000001" pos="0"/>
    <laneAreaDetector file="e2output.xml" freq="60" friendlyPos="x" id="e2det_0_e_1" lane="0_e_1" length="78.07000000000001" pos="0"/>
    <laneAreaDetector file="e2output.xml" freq="60" friendlyPos="x" id="e2det_0_s_0" lane="0_s_0" length="101.39" pos="0"/>
    <laneAreaDetector file="e2output.xml" freq="60" friendlyPos="x" id="e2det_0_w_0" lane="0_w_0" length="70.98" pos="0"/>
    <laneAreaDetector file="e2output.xml" freq="60" friendlyPos="x" id="e2det_0_w_1" lane="0_w_1" length="70.98" pos="0"/>
    <laneAreaDetector file="e2output.xml" freq="60" friendlyPos="x" id="e2det_10_n_0" lane="10_n_0" length="75.19000000000001" pos="0"/>
    <laneAreaDetector file="e2output.xml" freq="60" friendlyPos="x" id="e2det_10_s_0" lane="10_s_0" length="77.02000000000001" pos="0"/>
    <laneAreaDetector file="e2output.xml" freq="60" friendlyPos="x" id="e2det_10_w_0" lane="10_w_0" length="136.55" pos="0"/>
    <laneAreaDetector file="e2output.xml" freq="60" friendlyPos="x" id="e2det_11_e_0" lane="11_e_0" length="156.46" pos="0"/>
    <laneAreaDetector file="e2output.xml" freq="60" friendlyPos="x" id="e2det_11_n_0" lane="11_n_0" length="77.02000000000001" pos="0"/>
    <laneAreaDetector file="e2output.xml" freq="60" friendlyPos="x" id="e2det_11_s_0" lane="11_s_0" length="56.61" pos="1.4155343563970746e-15"/>
    <laneAreaDetector file="e2output.xml" freq="60" friendlyPos="x" id="e2det_11_w_0" lane="11_w_0" length="136.4" pos="0"/>
    <laneAreaDetector file="e2output.xml" freq="60" friendlyPos="x" id="e2det_12_e_0" lane="12_e_0" length="156.28" pos="0"/>
    <laneAreaDetector file="e2output.xml" freq="60" friendlyPos="x" id="e2det_12_n_0" lane="12_n_0" length="55.12" pos="1.4155343563970746e-15"/>
    <laneAreaDetector file="e2output.xml" freq="60" friendlyPos="x" id="e2det_12_s_0" lane="12_s_0" length="81.14" pos="0"/>
    <laneAreaDetector file="e2output.xml" freq="60" friendlyPos="x" id="e2det_12_w_0" lane="12_w_0" length="138.32" pos="0"/>
    <laneAreaDetector file="e2output.xml" freq="60" friendlyPos="x" id="e2det_13_e_0" lane="13_e_0" length="157.6" pos="0"/>
    <laneAreaDetector file="e2output.xml" freq="60" friendlyPos="x" id="e2det_13_e_1" lane="13_e_1" length="157.6" pos="0"/>
    <laneAreaDetector file="e2output.xml" freq="60" friendlyPos="x" id="e2det_13_e_2" lane="13_e_2" length="157.6" pos="0"/>
    <laneAreaDetector file="e2output.xml" freq="60" friendlyPos="x" id="e2det_13_n_0" lane="13_n_0" length="81.14" pos="0"/>
    <laneAreaDetector file="e2output.xml" freq="60" friendlyPos="x" id="e2det_13_w_0" lane="13_w_0" length="140.37" pos="0"/>
    <laneAreaDetector file="e2output.xml" freq="60" friendlyPos="x" id="e2det_13_w_1" lane="13_w_1" length="140.37" pos="0"/>
    <laneAreaDetector file="e2output.xml" freq="60" friendlyPos="x" id="e2det_13_w_2" lane="13_w_2" length="140.37" pos="0"/>
    <laneAreaDetector file="e2output.xml" freq="60" friendlyPos="x" id="e2det_14_e_0" lane="14_e_0" length="109.83000000000001" pos="0"/>
    <laneAreaDetector file="e2output.xml" freq="60" friendlyPos="x" id="e2det_14_e_1" lane="14_e_1" length="109.83000000000001" pos="0"/>
    <laneAreaDetector file="e2output.xml" freq="60" friendlyPos="x" id="e2det_14_s_0" lane="14_s_0" length="83.88000000000001" pos="0"/>
    <laneAreaDetector file="e2output.xml" freq="60" friendlyPos="x" id="e2det_14_s_1" lane="14_s_1" length="83.88000000000001" pos="0"/>
    <laneAreaDetector file="e2output.xml" freq="60" friendlyPos="x" id="e2det_14_s_2" lane="14_s_2" length="83.88000000000001" pos="0"/>
    <laneAreaDetector file="e2output.xml" freq="60" friendlyPos="x" id="e2det_14_w_0" lane="14_w_0" length="89.2" pos="0"/>
    <laneAreaDetector file="e2output.xml" freq="60" friendlyPos="x" id="e2det_14_w_1" lane="14_w_1" length="89.2" pos="0"/>
    <laneAreaDetector file="e2output.xml" freq="60" friendlyPos="x" id="e2det_15_n_0" lane="15_n_0" length="83.88000000000001" pos="0"/>
    <laneAreaDetector file="e2output.xml" freq="60" friendlyPos="x" id="e2det_15_n_1" lane="15_n_1" length="83.88000000000001" pos="0"/>
    <laneAreaDetector file="e2output.xml" freq="60" friendlyPos="x" id="e2det_15_n_2" lane="15_n_2" length="83.88000000000001" pos="0"/>
    <laneAreaDetector file="e2output.xml" freq="60" friendlyPos="x" id="e2det_15_s_0" lane="15_s_0" length="86.71000000000001" pos="0"/>
    <laneAreaDetector file="e2output.xml" freq="60" friendlyPos="x" id="e2det_15_s_1" lane="15_s_1" length="86.71000000000001" pos="0"/>
    <laneAreaDetector file="e2output.xml" freq="60" friendlyPos="x" id="e2det_15_s_2" lane="15_s_2" length="86.71000000000001" pos="0"/>
    <laneAreaDetector file="e2output.xml" freq="60" friendlyPos="x" id="e2det_15_w_0" lane="15_w_0" length="76.18" pos="0"/>
    <laneAreaDetector file="e2output.xml" freq="60" friendlyPos="x" id="e2det_15_w_1" lane="15_w_1" length="76.18" pos="0"/>
    <laneAreaDetector file="e2output.xml" freq="60" friendlyPos="x" id="e2det_15_w_2" lane="15_w_2" length="76.18" pos="0"/>
    <laneAreaDetector file="e2output.xml" freq="60" friendlyPos="x" id="e2det_16_e_0" lane="16_e_0" length="98.21000000000001" pos="0"/>
    <laneAreaDetector file="e2output.xml" freq="60" friendlyPos="x" id="e2det_16_n_0" lane="16_n_0" length="76.17" pos="0"/>
    <laneAreaDetector file="e2output.xml" freq="60" friendlyPos="x" id="e2det_16_n_1" lane="16_n_1" length="76.17" pos="0"/>
    <laneAreaDetector file="e2output.xml" freq="60" friendlyPos="x" id="e2det_16_n_2" lane="16_n_2" length="76.17" pos="0"/>
    <laneAreaDetector file="e2output.xml" freq="60" friendlyPos="x" id="e2det_16_s_0" lane="16_s_0" length="57.08" pos="1.4155343563970746e-15"/>
    <laneAreaDetector file="e2output.xml" freq="60" friendlyPos="x" id="e2det_16_s_1" lane="16_s_1" length="57.08" pos="1.4155343563970746e-15"/>
    <laneAreaDetector file="e2output.xml" freq="60" friendlyPos="x" id="e2det_16_s_2" lane="16_s_2" length="57.08" pos="1.4155343563970746e-15"/>
    <laneAreaDetector file="e2output.xml" freq="60" friendlyPos="x" id="e2det_16_w_0" lane="16_w_0" length="156.46" pos="0"/>
    <laneAreaDetector file="e2output.xml" freq="60" friendlyPos="x" id="e2det_17_n_0" lane="17_n_0" length="57.61" pos="1.4155343563970746e-15"/>
    <laneAreaDetector file="e2output.xml" freq="60" friendlyPos="x" id="e2det_17_n_1" lane="17_n_1" length="57.61" pos="1.4155343563970746e-15"/>
    <laneAreaDetector file="e2output.xml" freq="60" friendlyPos="x" id="e2det_17_n_2" lane="17_n_2" length="57.61" pos="1.4155343563970746e-15"/>
    <laneAreaDetector file="e2output.xml" freq="60" friendlyPos="x" id="e2det_17_s_0" lane="17_s_0" length="84.13000000000001" pos="0"/>
    <laneAreaDetector file="e2output.xml" freq="60" friendlyPos="x" id="e2det_17_s_1" lane="17_s_1" length="84.13000000000001" pos="0"/>
    <laneAreaDetector file="e2output.xml" freq="60" friendlyPos="x" id="e2det_17_s_2" lane="17_s_2" length="84.13000000000001" pos="0"/>
    <laneAreaDetector file="e2output.xml" freq="60" friendlyPos="x" id="e2det_17_w_0" lane="17_w_0" length="156.28" pos="0"/>
    <laneAreaDetector file="e2output.xml" freq="60" friendlyPos="x" id="e2det_18_e_0" lane="18_e_0" length="100.33000000000001" pos="0"/>
    <laneAreaDetector file="e2output.xml" freq="60" friendlyPos="x" id="e2det_18_e_1" lane="18_e_1" length="100.33000000000001" pos="0"/>
    <laneAreaDetector file="e2output.xml" freq="60" friendlyPos="x" id="e2det_18_e_2" lane="18_e_2" length="100.33000000000001" pos="0"/>
    <laneAreaDetector file="e2output.xml" freq="60" friendlyPos="x" id="e2det_18_n_0" lane="18_n_0" length="84.13000000000001" pos="0"/>
    <laneAreaDetector file="e2output.xml" freq="60" friendlyPos="x" id="e2det_18_n_1" lane="18_n_1" length="84.13000000000001" pos="0"/>
    <laneAreaDetector file="e2output.xml" freq="60" friendlyPos="x" id="e2det_18_n_2" lane="18_n_2" length="84.13000000000001" pos="0"/>
    <laneAreaDetector file="e2output.xml" freq="60" friendlyPos="x" id="e2det_18_w_0" lane="18_w_0" length="157.6" pos="0"/>
    <laneAreaDetector file="e2output.xml" freq="60" friendlyPos="x" id="e2det_18_w_1" lane="18_w_1" length="157.6" pos="0"/>
    <laneAreaDetector file="e2output.xml" freq="60" friendlyPos="x" id="e2det_18_w_2" lane="18_w_2" length="157.6" pos="0"/>
    <laneAreaDetector file="e2output.xml" freq="60" friendlyPos="x" id="e2det_1_e_0" lane="1_e_0" length="76.05000000000001" pos="0"/>
    <laneAreaDetector file="e2output.xml" freq="60" friendlyPos="x" id="e2det_1_n_0" lane="1_n_0" length="101.39" pos="0"/>
    <laneAreaDetector file="e2output.xml" freq="60" friendlyPos="x" id="e2det_1_s_0" lane="1_s_0" length="72.9" pos="0"/>
    <laneAreaDetector file="e2output.xml" freq="60" friendlyPos="x" id="e2det_1_w_0" lane="1_w_0" length="65.61" pos="0"/>
    <laneAreaDetector file="e2output.xml" freq="60" friendlyPos="x" id="e2det_2_e_0" lane="2_e_0" length="68.21000000000001" pos="0"/>
    <laneAreaDetector file="e2output.xml" freq="60" friendlyPos="x" id="e2det_2_e_1" lane="2_e_1" length="68.21000000000001" pos="0"/>
    <laneAreaDetector file="e2output.xml" freq="60" friendlyPos="x" id="e2det_2_e_2" lane="2_e_2" length="68.21000000000001" pos="0"/>
    <laneAreaDetector file="e2output.xml" freq="60" friendlyPos="x" id="e2det_2_n_0" lane="2_n_0" length="74.4" pos="0"/>
    <laneAreaDetector file="e2output.xml" freq="60" friendlyPos="x" id="e2det_2_s_0" lane="2_s_0" length="75.87" pos="0"/>
    <laneAreaDetector file="e2output.xml" freq="60" friendlyPos="x" id="e2det_2_w_0" lane="2_w_0" length="61.71" pos="1.4155343563970746e-15"/>
    <laneAreaDetector file="e2output.xml" freq="60" friendlyPos="x" id="e2det_2_w_1" lane="2_w_1" length="61.71" pos="1.4155343563970746e-15"/>
    <laneAreaDetector file="e2output.xml" freq="60" friendlyPos="x" id="e2det_2_w_2" lane="2_w_2" length="61.71" pos="1.4155343563970746e-15"/>
    <laneAreaDetector file="e2output.xml" freq="60" friendlyPos="x" id="e2det_3_e_0" lane="3_e_0" length="136.55" pos="0"/>
    <laneAreaDetector file="e2output.xml" freq="60" friendlyPos="x" id="e2det_3_n_0" lane="3_n_0" length="75.87" pos="0"/>
    <laneAreaDetector file="e2output.xml" freq="60" friendlyPos="x" id="e2det_3_s_0" lane="3_s_0" length="78.22" pos="0"/>
    <laneAreaDetector file="e2output.xml" freq="60" friendlyPos="x" id="e2det_4_e_0" lane="4_e_0" length="136.4" pos="0"/>
    <laneAreaDetector file="e2output.xml" freq="60" friendlyPos="x" id="e2det_4_n_0" lane="4_n_0" length="78.22" pos="0"/>
    <laneAreaDetector file="e2output.xml" freq="60" friendlyPos="x" id="e2det_4_s_0" lane="4_s_0" length="56.5" pos="1.4155343563970746e-15"/>
    <laneAreaDetector file="e2output.xml" freq="60" friendlyPos="x" id="e2det_4_w_0" lane="4_w_0" length="65.52000000000001" pos="0"/>
    <laneAreaDetector file="e2output.xml" freq="60" friendlyPos="x" id="e2det_5_e_0" lane="5_e_0" length="138.32" pos="0"/>
    <laneAreaDetector file="e2output.xml" freq="60" friendlyPos="x" id="e2det_5_n_0" lane="5_n_0" length="52.97" pos="1.4155343563970746e-15"/>
    <laneAreaDetector file="e2output.xml" freq="60" friendlyPos="x" id="e2det_5_s_0" lane="5_s_0" length="82.06" pos="0"/>
    <laneAreaDetector file="e2output.xml" freq="60" friendlyPos="x" id="e2det_6_e_0" lane="6_e_0" length="140.37" pos="0"/>
    <laneAreaDetector file="e2output.xml" freq="60" friendlyPos="x" id="e2det_6_e_1" lane="6_e_1" length="140.37" pos="0"/>
    <laneAreaDetector file="e2output.xml" freq="60" friendlyPos="x" id="e2det_6_e_2" lane="6_e_2" length="140.37" pos="0"/>
    <laneAreaDetector file="e2output.xml" freq="60" friendlyPos="x" id="e2det_6_n_0" lane="6_n_0" length="82.06" pos="0"/>
    <laneAreaDetector file="e2output.xml" freq="60" friendlyPos="x" id="e2det_6_w_0" lane="6_w_0" length="68.06" pos="0"/>
    <laneAreaDetector file="e2output.xml" freq="60" friendlyPos="x" id="e2det_6_w_1" lane="6_w_1" length="68.06" pos="0"/>
    <laneAreaDetector file="e2output.xml" freq="60" friendlyPos="x" id="e2det_6_w_2" lane="6_w_2" length="68.06" pos="0"/>
    <laneAreaDetector file="e2output.xml" freq="60" friendlyPos="x" id="e2det_7_e_0" lane="7_e_0" length="90.62" pos="0"/>
    <laneAreaDetector file="e2output.xml" freq="60" friendlyPos="x" id="e2det_7_e_1" lane="7_e_1" length="90.62" pos="0"/>
    <laneAreaDetector file="e2output.xml" freq="60" friendlyPos="x" id="e2det_7_s_0" lane="7_s_0" length="94.60000000000001" pos="0"/>
    <laneAreaDetector file="e2output.xml" freq="60" friendlyPos="x" id="e2det_7_w_0" lane="7_w_0" length="77.36" pos="0"/>
    <laneAreaDetector file="e2output.xml" freq="60" friendlyPos="x" id="e2det_7_w_1" lane="7_w_1" length="77.36" pos="0"/>
    <laneAreaDetector file="e2output.xml" freq="60" friendlyPos="x" id="e2det_8_n_0" lane="8_n_0" length="94.60000000000001" pos="0"/>
    <laneAreaDetector file="e2output.xml" freq="60" friendlyPos="x" id="e2det_8_s_0" lane="8_s_0" length="72.11" pos="0"/>
    <laneAreaDetector file="e2output.xml" freq="60" friendlyPos="x" id="e2det_8_w_0" lane="8_w_0" length="74.31" pos="0"/>
    <laneAreaDetector file="e2output.xml" freq="60" friendlyPos="x" id="e2det_9_e_0" lane="9_e_0" length="78.77000000000001" pos="0"/>
    <laneAreaDetector file="e2output.xml" freq="60" friendlyPos="x" id="e2det_9_e_1" lane="9_e_1" length="78.77000000000001" pos="0"/>
    <laneAreaDetector file="e2output.xml" freq="60" friendlyPos="x" id="e2det_9_e_2" lane="9_e_2" length="78.77000000000001" pos="0"/>
    <laneAreaDetector file="e2output.xml" freq="60" friendlyPos="x" id="e2det_9_n_0" lane="9_n_0" length="72.11" pos="0"/>
    <laneAreaDetector file="e2output.xml" freq="60" friendlyPos="x" id="e2det_9_s_0" lane="9_s_0" length="75.19000000000001" pos="0"/>
    <laneAreaDetector file="e2output.xml" freq="60" friendlyPos="x" id="e2det_9_w_0" lane="9_w_0" length="67.83000000000001" pos="0"/>
    <laneAreaDetector file="e2output.xml" freq="60" friendlyPos="x" id="e2det_9_w_1" lane="9_w_1" length="67.83000000000001" pos="0"/>
    <laneAreaDetector file="e2output.xml" freq="60" friendlyPos="x" id="e2det_9_w_2" lane="9_w_2" length="67.83000000000001" pos="0"/>
</additional>
